<?xml version="1.0" encoding="UTF-8"?>

<!-- generated on Tue Sep  4 11:20:08 2018 by SUMO polyconvert Version 0.32.0
<?xml version="1.0" encoding="UTF-8"?>

<configuration xmlns:xsi="http://www.w3.org/2001/XMLSchema-instance" xsi:noNamespaceSchemaLocation="http://sumo.dlr.de/xsd/polyconvertConfiguration.xsd">

    <input>
        <net-file value="/home/abray/Sumo/2018-09-04-11-20-06/osm.net.xml"/>
        <osm-files value="osm_bbox.osm.xml"/>
        <osm.keep-full-type value="true"/>
        <type-file value="/usr/share/sumo/data/typemap/osmPolyconvert.typ.xml"/>
    </input>

    <output>
        <output-file value="/home/abray/Sumo/2018-09-04-11-20-06/osm.poly.xml"/>
    </output>

    <processing>
        <poi-layer-offset value="5"/>
    </processing>

    <report>
        <verbose value="true"/>
    </report>

</configuration>
-->

<additional xmlns:xsi="http://www.w3.org/2001/XMLSchema-instance" xsi:noNamespaceSchemaLocation="http://sumo.dlr.de/xsd/additional_file.xsd">
    <location netOffset="-294388.60,-4263799.62" convBoundary="-1213.97,-11186.64,15283.52,30211.57" origBoundary="-77.380521,38.397834,-77.189564,38.770597" projParameter="+proj=utm +zone=18 +ellps=WGS84 +datum=WGS84 +units=m +no_defs"/>

    <poly id="172516885" type="building.yes" color="255,230,230" fill="1" layer="-1.00" shape="3937.38,1364.95 3986.97,1375.77 3990.32,1360.55 3940.73,1349.73 3937.38,1364.95"/>
    <poly id="20436786" type="landuse.military" color="153,153,92" fill="0" layer="-3.00" shape="4169.11,3487.74 4157.35,3423.37"/>
    <poly id="20446078" type="landuse.military" color="153,153,92" fill="0" layer="-3.00" shape="4169.82,3571.40 4172.16,3567.33 4175.07,3561.58 4176.64,3556.42 4178.28,3548.50 4178.86,3538.71 4178.27,3534.56 4177.61,3529.93 4176.94,3525.75 4169.11,3487.74"/>
    <poly id="21635210" type="waterway.riverbank" color="181,209,209" fill="1" layer="-4.00" shape="6007.10,3058.92 5976.05,3081.13 5950.59,3081.40 5924.56,3108.12 5913.54,3130.96 5891.37,3184.84 5886.12,3233.25 5888.56,3277.47 5899.80,3334.03 5931.71,3396.13 5971.94,3466.05 5997.15,3512.13 6035.67,3535.48 6078.89,3549.98 6068.57,3558.63 6006.05,3573.13 5973.34,3592.66 5947.93,3616.04 5915.49,3667.56 5903.76,3697.42 5906.97,3755.58 5907.03,3772.21 5880.65,3798.57 5851.59,3816.79 5829.59,3871.03 5828.54,3913.73 5850.14,3941.88 5846.72,3952.64 5821.40,3979.85 5778.26,4003.15 5754.08,4019.49 5738.88,4029.66 5730.39,4055.42 5729.13,4089.55 5739.38,4119.90 5750.70,4158.62 5740.04,4210.14 5725.89,4227.10 5695.14,4240.64 5663.83,4259.79 5639.00,4285.24 5620.73,4305.81 5589.18,4386.01 5569.53,4454.96 5633.99,4487.69 5644.48,4481.91 5652.52,4466.50 5666.43,4439.92 5669.60,4426.19 5673.83,4419.71 5679.63,4420.00 5682.76,4422.11 5680.06,4429.96 5675.57,4440.39 5664.93,4457.27 5653.80,4482.73 5641.47,4498.63 5614.35,4519.79 5567.21,4530.76 5470.25,4546.01 5394.99,4556.11 5336.77,4593.00 5272.44,4632.74 5228.13,4658.86 5185.45,4700.85 5169.99,4714.53 5159.01,4780.91 5161.50,4817.23 5172.38,4845.11 5182.80,4868.29 5182.97,4882.45 5163.95,4915.11 5143.71,4927.33 5118.00,4924.48 5113.09,4932.12 5103.74,4979.40 5094.76,4985.39 5076.24,4981.84 5021.61,4986.40 4999.37,4991.28 4978.70,5007.19 4962.24,5023.17 4938.17,5036.71 4910.50,5067.66 4887.80,5100.76 4878.75,5131.76 4877.48,5158.56 4855.94,5182.01 4831.65,5207.45 4806.09,5231.52 4800.66,5274.32 4781.58,5298.07 4760.91,5300.16 4725.35,5289.51 4713.29,5291.39 4695.58,5306.52 4672.25,5328.62 4633.39,5361.42 4598.51,5399.02 4576.47,5430.35 4569.91,5448.88 4543.48,5480.49 4516.21,5513.18 4497.03,5539.54 4499.77,5564.84 4507.22,5609.77 4491.00,5691.14 4482.79,5713.73 4472.99,5729.19 4459.97,5734.94 4437.53,5729.38 4422.82,5730.81 4409.67,5738.82 4398.44,5753.10 4392.30,5802.21 4395.10,5843.77 4407.44,5929.31 4428.48,5996.46 4420.24,6114.99 4311.10,6127.99 4238.55,6181.99 4189.00,6332.32 4206.49,6401.61 4218.27,6417.95 4214.86,6430.43 4225.61,6443.85 4245.23,6446.71 4252.83,6462.50 4254.05,6477.52 4275.86,6487.26 4290.73,6494.49 4304.26,6498.48 4319.26,6498.30 4340.40,6512.05 4347.02,6532.19 4342.81,6552.57 4364.87,6574.33 4373.38,6596.01 4386.85,6600.10 4398.29,6610.57 4404.66,6629.14 4395.66,6640.06 4410.98,6670.35 4426.48,6680.13 4437.19,6697.07 4454.54,6710.47 4470.94,6720.69 4485.41,6718.14 4500.36,6734.43 4561.90,6790.82 4576.18,6803.89 4610.33,6793.30 4636.83,6767.34 4686.92,6752.95 4712.89,6729.42 4759.30,6681.30 4784.42,6630.83 4804.05,6566.66 4823.37,6486.84 4858.87,6436.24 4884.92,6364.21 4916.55,6245.09 4929.45,6162.78 5037.00,6161.02 5079.96,6032.71 5135.00,5933.66 5246.20,5885.17 5361.45,5591.97 5455.23,5600.81 5564.73,5564.52 5664.32,5506.13 5656.75,5475.65 5645.20,5429.19 5714.27,5333.43 5749.80,5230.81 5752.67,5222.52 5836.94,5149.60 6039.34,5161.33 6229.39,5107.41 6300.70,5087.18 6352.40,4957.85 6338.60,4779.26 6360.72,4612.83 6441.83,4563.28 6509.96,4480.51 6587.57,4403.10 6632.60,4332.08 6645.30,4278.65 6638.02,4249.01 6659.42,4206.54 6627.75,4099.22 6577.20,3985.85 6524.65,3942.42 6486.98,3894.89 6485.24,3825.03 6504.89,3787.27 6455.12,3667.35 6433.22,3563.18 6396.30,3483.57 6368.20,3463.79 6340.87,3426.95 6333.51,3414.02 6322.66,3380.52 6304.65,3368.43 6274.46,3350.15 6007.10,3058.92"/>
    <poly id="222202146" type="population.451721" color="51,128,255" fill="0" layer="-1.00" shape="5091.38,376.30 5093.68,409.72 5113.54,444.15 5145.12,479.75 5176.73,516.81 5221.61,557.90 5253.41,602.22 5312.01,666.26 5343.63,703.32 5376.71,740.34 5410.14,791.90 5461.00,896.88 5517.58,997.35 5603.72,1169.85 5671.14,1294.80 5803.20,1550.55 5884.08,1688.25 5953.44,1891.72 5972.52,1953.82 6011.37,1987.78 6038.27,2011.86 6056.52,2040.51 6070.64,2079.45 6093.41,2113.80 6123.16,2134.90 6144.08,2153.30 6170.31,2209.39 6186.18,2259.94 6190.08,2299.13 6216.09,2346.50 6257.49,2415.67"/>
    <poly id="222203464" type="natural.coastline" color="140,196,107" fill="1" layer="-4.00" shape="5256.12,723.79 5268.01,712.30 5300.01,719.62 5316.02,723.23 5326.64,736.01 5339.24,753.41 5353.63,767.04 5395.56,834.05 5406.62,864.54 5409.00,885.00 5400.62,924.36 5406.83,948.45 5408.33,970.79 5408.68,984.76 5395.68,988.82 5385.69,1001.18 5380.63,1023.68 5368.63,1030.24 5360.89,1020.17 5333.90,1026.72 5311.57,1031.94 5290.09,1034.34 5268.70,1040.18 5246.65,1056.87 5217.10,1073.18 5204.92,1072.55 5187.36,1081.66 5166.30,1100.83 5150.91,1121.73 5124.76,1123.96 5105.84,1116.33 5119.88,1115.98 5139.36,1108.68 5150.14,1090.98 5185.23,1071.45 5213.04,1060.51 5223.10,1050.93 5237.75,1037.52 5257.00,1021.19 5260.30,1003.38 5272.74,976.97 5284.86,937.22 5292.42,902.54 5295.32,868.91 5290.18,850.67 5273.79,831.50 5254.29,800.28 5243.42,777.90 5247.63,758.50 5255.65,742.45 5256.12,723.79"/>
    <poly id="222203469" type="landuse.forest" color="140,196,107" fill="1" layer="-3.00" shape="5284.86,937.22 5314.95,980.29 5319.23,1001.63 5311.57,1031.94 5333.90,1026.72 5360.89,1020.17 5378.22,1002.02 5393.59,980.20 5388.66,932.78 5388.29,917.86 5399.76,889.61 5393.39,859.93 5370.78,816.68 5349.22,778.06 5324.34,756.30 5315.55,741.61 5295.57,729.05 5270.19,725.03 5256.12,723.79 5255.65,742.45 5247.63,758.50 5243.42,777.90 5254.29,800.28 5273.79,831.50 5290.18,850.67 5295.32,868.91 5292.42,902.54 5284.86,937.22"/>
    <poly id="227014090" type="population.451721" color="51,128,255" fill="0" layer="-1.00" shape="6580.24,3039.45 6711.26,3192.74 6962.36,3685.56 6970.28,3710.09 6962.31,3742.31 6951.17,3764.41 6943.34,3802.42 6944.75,3859.14 6958.02,3922.82 6977.23,3990.72 7006.20,4039.48 7042.00,4069.14 7070.52,4100.44 7090.27,4130.50 7104.23,4163.61 7115.06,4188.09 7134.69,4213.79 7154.64,4252.57 7170.07,4285.65 7194.01,4308.33 7212.00,4326.80 7224.54,4361.41 7228.72,4412.22 7231.19,4452.90 7236.83,4503.67 7252.19,4533.84 7264.58,4562.63 7262.67,4603.41 7242.81,4627.18 7239.51,4670.90 7233.26,4713.25 7231.60,4764.20 7228.72,4825.38 7219.84,4879.42 7196.28,4930.92 7194.77,4987.69 7183.10,5069.62 7192.23,5112.39 7216.38,5173.20 7240.61,5214.62 7265.50,5237.30 7291.34,5253.34 7301.98,5267.06 7307.42,5297.68 7315.15,5307.74 7342.98,5335.93 7351.86,5354.35 7360.69,5378.45 7367.91,5397.75 7379.51,5413.29 7392.25,5436.28 7400.12,5459.47 7408.22,5484.42 7422.94,5500.65 7440.89,5519.03 7474.93,5571.29 7506.59,5603.12 7551.62,5645.80 7569.84,5663.99 7579.71,5676.69 7614.87,5699.11 7665.03,5729.65 7743.10,5777.01 7792.28,5798.16 7836.08,5828.75 7905.73,5853.21 7931.59,5870.19 7988.27,5899.63 7995.36,5914.27 8035.91,5927.25 8110.94,5972.91 8204.98,6030.22 8250.37,6049.60 8295.40,6062.56 8341.35,6067.01 8374.73,6072.02 8426.32,6062.77 8465.06,6093.82 8511.24,6130.50 8534.46,6183.74 8546.43,6254.72 8553.52,6305.45 8554.70,6353.42 8554.28,6395.61 8553.53,6424.72 8566.07,6459.31 8604.70,6486.00 8708.19,6537.27 8799.28,6559.75 8886.14,6588.16 8948.94,6588.07 8987.14,6597.31 9017.93,6602.37 9019.71,6615.42 9013.02,6640.30 9006.26,6662.29 9935.53,9845.78 9943.44,9870.31 9941.30,9902.34 9936.35,9938.81 9934.04,9963.57 9944.96,9992.39 9953.04,10024.17 9949.37,10053.34 9938.13,10071.06 9944.85,10107.24 9954.17,10130.26 9961.97,10150.43 9974.42,10182.11 9972.39,10218.50 9969.94,10237.45"/>
    <poly id="227014104" type="landuse.military" color="153,153,92" fill="0" layer="-3.00" shape="6257.49,2415.67 6268.74,2429.88 6278.30,2432.78 6287.67,2435.28 6291.70,2443.13 6292.69,2449.14 6287.43,2463.26 6288.10,2471.63 6291.08,2493.49 6296.19,2514.31 6303.66,2529.06 6310.12,2543.81 6324.80,2569.55 6343.21,2594.73 6364.32,2615.63 6382.16,2636.63 6403.27,2661.72 6428.11,2681.61 6454.00,2700.62 6471.11,2711.53 6481.41,2718.82 6490.31,2722.60 6507.25,2730.06 6526.82,2733.22 6531.98,2737.29 6537.08,2750.68 6545.86,2764.91 6552.45,2770.33 6566.35,2779.78 6574.54,2789.36 6580.83,2801.32 6582.16,2806.09 6584.87,2845.08 6579.48,2891.82 6577.72,2937.91 6581.23,2962.62 6587.28,2980.18 6590.34,2990.35 6580.24,3039.45"/>
    <poly id="227014107" type="landuse.military" color="153,153,92" fill="0" layer="-3.00" shape="3602.99,-2287.14 3596.93,-2281.65 3587.76,-2278.53 3579.81,-2278.56 3571.90,-2273.69 3565.23,-2268.20 3557.24,-2263.33 3546.94,-2259.63 3537.13,-2254.16 3529.86,-2248.09 3523.12,-2238.37 3519.48,-2230.40 3512.81,-2224.90 3502.44,-2220.64 3494.46,-2218.77 3492.57,-2217.61 3486.55,-2213.91 3473.12,-2192.58 3465.87,-2182.29 3460.11,-2175.49 3456.04,-2170.61 3445.71,-2161.46 3431.71,-2156.00 3420.10,-2152.38 3399.40,-2149.30 3379.85,-2145.70 3354.23,-2143.83 3345.71,-2138.95 3335.39,-2136.47 3325.63,-2135.89 3317.10,-2138.34 3307.99,-2139.56 3295.80,-2138.36 3285.39,-2135.88 3268.33,-2126.79 3250.01,-2119.44 3237.22,-2117.56 3218.32,-2112.76 3198.86,-2109.04 3192.11,-2106.65 3182.34,-2099.30 3167.77,-2092.05 3154.29,-2086.49 3140.29,-2084.69 3123.28,-2084.04 3113.51,-2087.13 3106.17,-2090.83 3097.68,-2092.06 3089.11,-2088.95 3078.75,-2077.36 3068.39,-2073.10 3054.39,-2070.64 3047.63,-2068.80 3040.33,-2063.96 3029.97,-2059.70 3021.47,-2057.26 3014.75,-2050.54 3003.73,-2034.16 2986.65,-2018.85 2975.75,-2015.24 2958.66,-2010.92 2939.76,-2009.11 2919.61,-2001.83 2881.85,-1982.88 2860.49,-1975.02 2850.15,-1973.20 2836.76,-1963.98 2826.39,-1959.72 2818.47,-1955.52 2806.89,-1957.89 2798.97,-1956.69 2782.48,-1953.06 2750.76,-1947.59 2737.40,-1940.81 2716.68,-1928.07 2695.30,-1907.32 2681.88,-1892.65 2659.94,-1873.11 2620.31,-1831.68 2603.25,-1801.82 2589.87,-1771.95 2578.25,-1754.88 2568.76,-1743.65 2553.93,-1726.28 2545.94,-1717.75 2540.46,-1713.50 2533.13,-1709.76 2522.84,-1706.17 2509.36,-1700.61 2498.43,-1701.22 2485.63,-1700.01 2470.94,-1697.64 2458.82,-1690.34 2442.93,-1693.93 2419.77,-1698.23 2405.78,-1699.43 2389.89,-1699.47 2376.48,-1694.58 2367.37,-1689.02 2359.40,-1679.93 2353.96,-1677.46 2327.74,-1678.69 2313.09,-1671.43 2276.56,-1662.84 2254.56,-1652.51 2229.60,-1642.11 2195.41,-1626.92 2174.12,-1616.49 2157.02,-1609.17 2137.54,-1599.46 2119.83,-1595.79 2106.48,-1598.79 2090.57,-1596.38 2073.53,-1590.29 2058.28,-1582.35 2028.37,-1570.82 2002.80,-1567.17 1980.84,-1555.51 1963.80,-1542.20 1946.77,-1532.43 1931.49,-1525.72 1913.83,-1516.50 1899.16,-1509.79 1883.34,-1503.73 1875.39,-1497.08 1864.41,-1489.70 1840.09,-1478.09 1807.09,-1467.81 1794.92,-1462.28 1777.85,-1457.41 1769.31,-1456.85 1741.31,-1452.59 1714.50,-1446.47 1693.75,-1438.50 1666.91,-1426.38 1640.72,-1419.61 1618.13,-1408.59 1602.29,-1400.08 1581.55,-1395.22 1566.35,-1385.51 1552.90,-1372.06 1551.06,-1358.69 1543.78,-1349.51 1531.56,-1336.09 1522.42,-1321.42 1514.48,-1303.79 1505.36,-1284.90 1494.37,-1284.84 1480.72,-1282.49 1466.38,-1280.02 1449.30,-1275.70 1427.94,-1274.49 1408.48,-1270.88 1393.82,-1270.84 1373.14,-1267.21 1349.98,-1258.07 1329.85,-1246.45 1307.89,-1241.67 1283.52,-1235.50 1265.79,-1232.49 1240.22,-1228.84 1218.84,-1218.41 1194.48,-1218.46 1167.68,-1215.44 1149.39,-1210.54 1126.85,-1200.74 1109.78,-1199.53 1095.13,-1195.27 1032.35,-1172.13 1017.72,-1164.20 1006.14,-1156.24 1000.02,-1149.54 990.31,-1147.07 956.16,-1140.98 938.45,-1133.75 920.81,-1123.97 907.36,-1117.30 890.30,-1115.42 881.47,-1116.19 868.96,-1117.21 848.88,-1117.25 824.50,-1108.08 817.14,-1102.67 771.48,-1085.85 744.86,-1082.50 692.92,-1075.73 688.01,-1073.05 696.35,-1043.95 695.65,-1033.82 691.46,-1023.50 681.10,-1015.68 665.24,-1014.61 653.04,-1020.63 643.70,-1030.94 642.26,-1032.68 623.90,-1054.54 607.96,-1066.79 604.46,-1070.48 587.87,-1081.05 560.13,-1090.55 540.08,-1096.48 525.62,-1102.00 500.80,-1113.69 565.77,-1170.55 502.18,-1165.37 475.48,-1165.24 471.55,-1165.25 451.10,-1169.73 441.09,-1171.91 418.66,-1175.23 409.49,-1175.22 397.49,-1173.58 372.87,-1160.17 365.05,-1148.54 362.28,-1144.36 355.32,-1095.76 352.25,-1068.69 348.12,-1042.49 345.04,-1026.53 343.63,-1006.50 354.57,-988.24 320.67,-962.38 279.25,-933.56 237.82,-908.51 188.45,-883.26 139.61,-861.35 93.91,-842.97 -17.50,-796.91 -68.22,-776.62 -77.11,-772.95 -82.02,-770.91 -107.68,-760.17 -146.52,-742.85 -155.39,-738.52 -159.61,-735.97 -155.94,-746.17 -156.16,-751.27 -156.97,-755.80 -161.01,-760.14 -168.92,-765.71 -176.85,-768.62 -190.54,-771.38 -202.87,-772.17 -213.77,-771.78 -228.63,-769.29 -243.23,-763.58 -270.58,-734.01 -282.76,-715.48 -299.35,-692.18 -307.85,-676.30 -311.03,-667.45 -317.79,-648.84 -323.61,-613.82 -340.74,-593.94 -367.08,-559.50 -384.98,-532.50 -392.12,-521.66 -399.47,-508.70 -410.07,-489.77 -456.89,-396.28 -467.93,-374.23 -473.28,-378.75 -477.30,-378.76 -481.18,-380.33 -485.39,-381.22 -497.80,-381.57 -502.40,-380.67 -509.10,-376.72 -539.10,-348.63 -561.23,-326.41 -580.08,-306.16 -604.60,-275.43 -618.87,-253.52 -655.24,-184.62 -660.65,-174.37 -667.71,-160.31 -674.02,-140.82 -684.48,-103.13 -699.95,-19.33 -704.53,-3.66 -713.07,17.22 -722.23,23.89 -733.41,30.51 -746.25,36.84 -750.92,38.29 -758.67,38.93 -767.84,38.73 -776.33,37.72 -801.86,32.61 -822.14,28.02 -853.79,22.61 -882.64,17.14 -974.55,-0.15 -971.04,17.30 -971.14,27.08 -969.08,56.34 -966.93,75.61 -957.63,124.79 -952.47,142.21 -943.78,164.42 -941.07,171.23 -887.35,308.67 -883.55,324.34 -878.28,345.75 -872.75,370.71 -865.91,392.41 -851.68,440.02 -838.64,492.55 -832.46,546.03 -836.20,604.32 -845.54,634.66 -859.70,657.57 -883.19,680.60 -907.55,696.89 -928.36,708.86 -954.33,723.75 -999.87,744.58 -1016.20,751.22 -1045.90,763.31 -1046.85,764.00 -1032.26,791.50 -1014.54,822.14 -743.08,1343.67 -593.07,1412.11 -507.93,1448.24 -429.52,1480.76 -400.32,1673.47 -392.97,1718.15 -380.67,1799.57 -378.08,1815.38 -311.88,2279.90 -428.25,2134.85 -469.50,2081.27 -499.41,2044.50 -531.70,2003.57 -566.92,1960.39 -614.00,1900.85 -617.66,1904.50 -651.73,1862.18 -661.98,1880.99 -668.49,1895.92 -670.40,1902.86 -670.81,1907.42 -670.82,1913.86 -670.22,1919.96 -670.04,1927.06 -678.62,1949.71 -709.02,2039.79 -762.86,2208.98 -818.90,2248.74 -820.28,2249.44 -1041.62,2354.87 -1107.33,2388.11 -1100.40,2396.59 -1063.51,2453.17 -1060.31,2448.86 -1053.88,2454.69 -1051.29,2456.85 -1030.08,2474.07 -1005.36,2492.20 -979.80,2508.98 -958.63,2521.43 -931.56,2535.83 -920.52,2541.10 -834.18,2590.52 -816.34,2588.73 -789.50,2587.48 -764.63,2587.73 -741.21,2589.24 -725.28,2591.16 -714.60,2592.44 -698.74,2595.03 -672.42,2600.79 -646.59,2608.01 -631.27,2613.17 -485.74,2698.27 -462.32,2710.00 -438.24,2720.26 -413.58,2729.18 -391.34,2735.83 -388.52,2736.64 -363.07,2742.65 -342.38,2746.45 -310.53,2750.19 -290.34,2751.45 -258.93,2751.64 -227.58,2749.50 -201.84,2746.17 -175.88,2741.29 -166.78,2738.83 -143.29,2729.57 -124.42,2720.42 -106.37,2709.74 -89.14,2697.75 -75.98,2687.19 -24.78,2642.46 99.48,2799.97 100.98,2797.15 101.11,2802.03 140.60,2852.00 645.09,3478.54 699.76,3548.99 1109.72,4077.03 1129.06,4099.97 1137.87,4110.40 1232.14,4222.27 1257.78,4252.83 1287.35,4283.72 1318.03,4313.48 1349.81,4342.10 1382.61,4369.47 1399.96,4382.91 1416.33,4395.71 1431.80,4404.66 1464.39,4430.52 1496.82,4453.91 1527.32,4476.34 1564.14,4503.55 1609.64,4542.52 1653.67,4586.83 1670.74,4606.88 1689.57,4630.78 1705.43,4656.18 1719.22,4676.84 1731.07,4702.82 1744.15,4726.58 1759.13,4758.63 1788.49,4812.42 1824.61,4911.53 1848.26,4961.05 1877.99,5013.63 1890.91,5040.08 1907.50,5068.25 1913.38,5086.53 1927.56,5106.60 1936.75,5126.00 1939.82,5131.15 1948.72,5146.09 1955.42,5161.79 1956.71,5171.90 1655.95,5404.82 1832.37,5275.67 1864.00,5250.87 1904.49,5220.86 1945.89,5192.15 1973.59,5174.18 1980.64,5169.61 2005.36,5154.21 2039.99,5133.79 2048.25,5129.25 2057.88,5123.89 2084.11,5109.35 2128.88,5086.44 2174.38,5064.85 2187.68,5059.52 2209.23,5049.42 2225.91,5040.22 2246.09,5027.60 2265.36,5013.68 2287.22,4995.24 2300.84,4982.01 2314.08,4967.57 2316.96,4964.39 2326.55,4950.60 2336.95,4937.45 2351.03,4921.88 2365.51,4908.08 2382.60,4894.20 2396.40,4884.53 2414.35,4873.63 2578.64,4797.06 2596.22,4788.39 2609.95,4779.61 2620.30,4771.68 2632.32,4760.71 2641.15,4751.16 2651.12,4738.25 2661.01,4726.37 2669.90,4712.34 2677.81,4699.60 2684.38,4683.56 2690.32,4662.74 2696.52,4647.86 2700.36,4628.45 2706.35,4612.46 2714.08,4593.25 2722.76,4575.63 2730.86,4562.58 2741.36,4547.62 2758.61,4529.85 2771.49,4514.87 2786.61,4495.27 2800.48,4474.82 2810.60,4457.80 2822.09,4435.96 2832.16,4413.38 2840.82,4390.18 2847.98,4366.56 2859.12,4317.31 2866.50,4284.80 2872.85,4256.88 2878.93,4234.85 2887.75,4207.75 2900.29,4175.89 2912.28,4150.05 2925.69,4124.94 2940.42,4100.47 2953.11,4081.49 2973.62,4054.10 2988.26,4036.63 3003.63,4019.80 3023.88,3999.74 3036.87,3988.98 3068.34,3960.97 3098.75,3931.77 3106.64,3919.69 3125.41,3889.12 3142.76,3857.70 3151.06,3840.94 3158.69,3825.54 3170.41,3799.25 3183.79,3765.93 3195.67,3732.09 3239.18,3621.05 3250.16,3603.23 3259.94,3589.54 3270.42,3576.40 3284.60,3560.93 3296.78,3549.41 3312.84,3535.90 3329.89,3523.59 3351.36,3510.50 3373.94,3499.38 3393.46,3491.67 3413.54,3485.38 3438.08,3479.77 3463.03,3476.25 3479.75,3475.16 3496.58,3475.07 3848.56,3492.19 3873.21,3490.90 3903.93,3487.79 3940.51,3482.21 3960.38,3478.04 3964.64,3477.16 3988.56,3471.23 4012.29,3464.30 4041.44,3454.35 4093.60,3433.60 4125.24,3422.15 4145.23,3415.65 4165.04,3409.15 4157.35,3423.37"/>
    <poly id="227024113" type="landuse.industrial" color="209,209,204" fill="0" layer="-3.00" shape="7183.10,5069.62 7067.93,5056.07 6741.03,4247.11 6659.42,4206.54 6627.75,4099.22 6577.20,3985.85 6524.65,3942.42 6486.98,3894.89 6485.24,3825.03 6504.89,3787.27 6455.12,3667.35 6433.22,3563.18 6396.30,3483.57 6368.20,3463.79 6340.87,3426.95 6333.51,3414.02 6322.66,3380.52 6304.65,3368.43 6274.46,3350.15"/>
    <poly id="227024122" type="landuse.industrial" color="209,209,204" fill="0" layer="-3.00" shape="6274.46,3350.15 6292.52,3345.32 6326.65,3346.08 6342.81,3357.38 6391.68,3370.91 6418.37,3400.14 6435.83,3415.36 6486.96,3480.16 6508.84,3505.33 6558.07,3547.37 6574.50,3575.84 6605.21,3608.65 6693.08,3680.09 6939.25,3719.65 6926.68,3854.16 6957.22,3991.34 6993.97,4037.02 7035.37,4083.52 7081.56,4135.49 7099.47,4177.92 7148.28,4259.65 7182.12,4303.55 7236.31,4489.52 7252.08,4748.19 7183.71,4934.39 7183.10,5069.62"/>
    <poly id="227024122#1" type="natural.coastline" color="140,196,107" fill="0" layer="-4.00" shape="6274.46,3350.15 6292.52,3345.32 6326.65,3346.08 6342.81,3357.38 6391.68,3370.91 6418.37,3400.14 6435.83,3415.36 6486.96,3480.16 6508.84,3505.33 6558.07,3547.37 6574.50,3575.84 6605.21,3608.65 6693.08,3680.09 6939.25,3719.65 6926.68,3854.16 6957.22,3991.34 6993.97,4037.02 7035.37,4083.52 7081.56,4135.49 7099.47,4177.92 7148.28,4259.65 7182.12,4303.55 7236.31,4489.52 7252.08,4748.19 7183.71,4934.39 7183.10,5069.62"/>
    <poly id="249132864" type="building.yes" color="255,230,230" fill="1" layer="-1.00" shape="4754.52,1498.26 4765.21,1486.80 4737.26,1460.93 4726.56,1472.39 4754.52,1498.26"/>
    <poly id="255094222" type="man_made.pipeline" color="255,230,230" fill="0" layer="-1.00" shape="-1213.97,-11186.64 -1154.42,-11053.81 -1131.81,-11003.74 -954.46,-10674.88 -793.05,-10310.43 -739.90,-9971.80 -689.19,-9560.26 -629.89,-9317.52 -520.65,-9084.63 -308.96,-8827.24 -99.38,-8595.50 160.02,-8322.19 743.32,-7718.68 1166.62,-7256.76 1249.74,-7146.06 1493.69,-6870.23 1698.99,-6634.11 1937.94,-6370.30 2180.95,-6115.88 2311.75,-5932.87 2406.04,-5747.50 2432.66,-5630.39 2485.34,-5439.56 2581.04,-5062.40 2682.10,-4673.29 2794.37,-4241.07 2851.99,-4006.34 2896.19,-3770.56 2899.03,-3698.72 2920.99,-3598.00 3001.18,-3272.96 3115.40,-3003.36 3204.53,-2784.08 3314.96,-2563.83 3522.24,-2197.84 3582.98,-2090.20 3668.65,-1874.73 3728.83,-1618.67 3828.53,-1186.66 3904.28,-880.37 4004.20,-467.66 4035.14,-422.94 4079.01,-244.99 4112.95,-98.70 4130.80,-1.07 4163.94,142.02 4216.25,356.85 4266.42,572.07 4309.22,765.02 4334.58,847.84 4378.06,953.73 4445.93,1061.16 4525.26,1168.64 4586.12,1246.48 4653.64,1313.96 4742.75,1393.93 4885.51,1529.23 5055.23,1686.17 5144.37,1771.67 5364.03,1978.70 5491.67,2100.32 5581.89,2215.03 5721.05,2425.50 6008.10,2840.68 6072.62,2958.87 6363.39,3364.50 6464.06,3555.23 6559.74,3775.31 6652.62,4026.83 6812.76,4219.63 6872.21,4278.76 6913.14,4341.19 6858.18,4405.30 6925.86,4565.45 6961.43,4762.93 7056.75,4973.29 7116.38,5132.61 7223.04,5310.94 7313.84,5441.76 7426.39,5592.20 7561.77,5724.94 7675.63,5826.47 7972.87,6057.50 8149.45,6194.27 8317.65,6339.80 8416.35,6482.07 8368.33,6585.29 8414.31,6650.44 8439.15,6729.65 8471.41,6847.89 8469.47,6972.66 8475.10,7345.97 8477.43,7499.14 8452.18,7781.25 8442.50,7852.75 8451.46,7968.54 8436.65,8168.44 8423.48,8290.71 8392.70,8396.78 8293.32,8654.69 8284.59,8725.71 8270.68,8857.87 8303.02,9008.84 8339.26,9085.61 8511.55,9399.85 8642.80,9645.27 8751.16,9833.54 8853.53,10010.55 8918.38,10174.96 9016.56,10502.39 9051.59,10646.85 9052.37,10795.00 9147.18,11169.27 9240.84,11529.91 9350.11,11960.30 9428.34,12350.10 9437.36,12407.54 9477.13,12650.51 9507.31,12879.80 9512.90,12919.82 9540.51,13100.48 9561.79,13279.87 9575.59,13396.23 9565.36,13547.94 9587.59,13882.87 9588.27,13892.99 9607.95,14286.99 9604.16,14434.55 9614.61,14511.52 9630.28,14894.37 9642.18,15146.12 9659.70,15597.79 9686.39,15723.85 9687.79,15809.96 9703.21,16234.58 9726.42,16510.21 9744.71,16643.59 9776.57,16864.19 9799.90,16970.39 9859.90,17172.50 9914.41,17326.33 9950.96,17409.90 10015.12,17556.61 10074.09,17659.07 10131.70,17764.43 10211.30,17892.01 10307.70,18034.84 10380.33,18133.94 10419.59,18182.98 10438.71,18202.78 10526.91,18289.15 10652.23,18334.00 10826.07,18508.64 11040.70,18694.84 11139.34,18783.52 11237.72,18862.25 11488.75,19076.73 11587.73,19180.35 11655.68,19271.21 11724.28,19447.43 11748.46,19560.70 11807.99,19863.80 11862.02,20117.21 11890.75,20241.03 11911.71,20397.75 11950.31,20604.58 11963.32,20698.89 12009.96,20884.15 12034.89,20968.92 12113.94,21252.99 12152.88,21385.80 12214.33,21621.90 12267.62,21787.07 12310.85,21978.81 12368.76,22157.37 12442.66,22424.19 12447.82,22442.82 12522.02,22704.92 12555.01,22828.58 12611.73,23047.00 12664.90,23178.00 12754.27,23329.46 12891.87,23467.66 13098.10,23697.36 13227.62,23826.51 13519.92,24132.36 13687.72,24286.76 13788.72,24434.17 14046.83,24581.91 14236.60,24662.82 14732.85,24892.25 14974.72,24999.08 15111.82,25074.24 15199.40,25147.56 15283.52,25245.10 15279.27,25278.38 15007.51,25440.75 14878.89,25526.37 14930.63,25599.78 14975.53,25665.87 14634.50,25759.52 14270.23,25855.40 14139.47,25788.51 13541.78,25788.85 12638.91,25778.52 12376.41,25778.86 11740.08,25685.74 11247.27,25604.85 10823.61,25534.87 10646.23,25608.90 10496.49,25645.99 10210.78,25728.37 9982.03,25774.52 9729.58,25786.42 9393.97,25813.18 9224.97,25821.62 9194.32,25852.24 9018.31,25865.82 8809.58,25884.50 8672.09,25896.43 8603.76,25905.23 8323.63,25923.56 8013.02,25950.45 7852.35,25977.91 7640.10,25998.13 7427.33,26026.18 7253.80,26053.25 6972.61,26057.43 6785.90,26042.90 6476.46,26030.73 6058.49,26018.45 5838.30,26006.90 5596.13,25973.18 5182.57,25938.07 5055.46,25937.01 4821.07,26098.65 4439.57,26371.37 4130.02,26610.98 3946.86,26743.82 3734.40,26905.57 3606.98,26996.78 3438.93,27117.69 3246.18,27259.83 3166.14,27308.12 2966.01,27437.39 2746.50,27578.21 2337.51,27833.63 2060.23,28016.32 1693.67,28252.49 1276.61,28521.96 901.71,28770.12 350.56,29121.09 -165.61,29457.12 -554.56,29715.48 -717.40,29821.67 -798.57,29883.08 -1199.05,30211.57"/>
    <poly id="305932233" type="amenity.parking" color="184,184,179" fill="1" layer="-1.00" shape="5541.39,2355.37 5547.95,2348.76 5560.68,2335.90 5573.64,2322.82 5587.02,2309.31 5596.67,2299.57 5603.36,2305.16 5615.73,2296.33 5715.30,2450.41 5702.53,2457.78 5661.91,2394.05 5640.89,2406.31 5676.29,2462.61 5670.21,2466.36 5662.43,2471.16 5541.39,2355.37"/>
    <poly id="305932239" type="amenity.parking" color="184,184,179" fill="1" layer="-1.00" shape="5705.10,2357.25 5691.49,2335.77 5685.81,2339.33 5644.67,2273.83 5646.92,2242.98 5654.19,2219.59 5663.43,2202.63 5649.35,2180.73 5639.03,2183.27 5618.06,2185.35 5588.24,2205.23 5586.27,2208.52 5578.44,2214.14 5604.05,2252.83 5683.22,2371.27 5705.10,2357.25"/>
    <poly id="322700483" type="aeroway.runway" color="grey" fill="0" layer="-2.00" shape="4436.93,-209.11 4793.10,1028.92"/>
    <poly id="322700485" type="building.yes" color="255,230,230" fill="1" layer="-1.00" shape="4061.25,2797.84 4102.21,2764.45 4105.00,2731.05 4117.36,2721.27 4128.15,2733.46 4124.25,2773.69 4103.39,2790.40 4102.08,2797.46 4096.93,2801.20 4107.71,2813.27 4087.47,2828.91 4061.25,2797.84"/>
    <poly id="322700489" type="building.yes" color="255,230,230" fill="1" layer="-1.00" shape="4843.77,1607.70 4887.18,1647.85 4907.75,1625.78 4864.35,1585.63 4843.77,1607.70"/>
    <poly id="322700490" type="building.yes" color="255,230,230" fill="1" layer="-1.00" shape="4166.63,857.58 4197.92,854.32 4196.69,842.56 4165.40,845.83 4166.63,857.58"/>
    <poly id="322700491" type="building.yes" color="255,230,230" fill="1" layer="-1.00" shape="5868.25,2149.06 5888.81,2135.80 5877.92,2119.08 5857.38,2132.34 5868.25,2149.06"/>
    <poly id="322700493" type="building.yes" color="255,230,230" fill="1" layer="-1.00" shape="4445.66,873.09 4395.44,903.93 4436.79,970.73 4487.01,939.88 4445.66,873.09"/>
    <poly id="322700494" type="building.yes" color="255,230,230" fill="1" layer="-1.00" shape="4916.23,1675.10 4952.29,1709.07 4972.76,1687.54 4936.70,1653.55 4916.23,1675.10"/>
    <poly id="322700496" type="building.yes" color="255,230,230" fill="1" layer="-1.00" shape="4514.00,923.42 4553.32,899.41 4526.71,856.20 4487.39,880.23 4514.00,923.42"/>
    <poly id="322700497" type="building.yes" color="255,230,230" fill="1" layer="-1.00" shape="5386.42,1789.62 5370.17,1798.91 5435.40,1908.26 5451.94,1898.96 5386.42,1789.62"/>
    <poly id="322700498" type="building.yes" color="255,230,230" fill="1" layer="-1.00" shape="5738.16,2570.85 5766.59,2553.12 5718.15,2476.03 5689.72,2493.75 5738.16,2570.85"/>
    <poly id="322700501" type="building.yes" color="255,230,230" fill="1" layer="-1.00" shape="4169.19,884.33 4199.83,881.90 4198.84,869.43 4168.20,871.86 4169.19,884.33"/>
    <poly id="322700503" type="building.yes" color="255,230,230" fill="1" layer="-1.00" shape="4464.53,843.48 4503.86,820.05 4478.12,777.17 4438.78,800.59 4464.53,843.48"/>
    <poly id="322700504" type="building.yes" color="255,230,230" fill="1" layer="-1.00" shape="4531.37,855.90 4543.96,875.92 4550.91,871.58 4538.31,851.56 4531.37,855.90"/>
    <poly id="322700510" type="building.yes" color="255,230,230" fill="1" layer="-1.00" shape="4083.76,1565.65 4091.54,1531.66 4107.23,1535.22 4103.02,1553.58 4150.42,1564.35 4154.61,1546.05 4171.15,1549.81 4163.38,1583.72 4083.76,1565.65"/>
    <poly id="338253834" type="leisure.stadium" color="207,245,201" fill="1" layer="-2.00" shape="4554.09,2042.88 4550.55,2028.43 4548.62,2014.89 4550.51,2001.25 4555.71,1980.88 4567.94,1962.24 4587.02,1950.70 4604.21,1940.15 4628.40,1930.37 4645.23,1917.63 4658.12,1912.88 4681.93,1900.27 4755.94,1851.63 4845.65,1935.68 4797.89,1980.19 4753.03,2013.87 4706.76,2042.54 4639.86,2070.77 4599.96,2087.26 4587.58,2087.25 4572.32,2086.36 4559.18,2081.32 4555.11,2070.99 4552.48,2054.62 4554.09,2042.88"/>