<?xml version="1.0" encoding="UTF-8"?>

<!-- generated on Fri 07 Sep 2018 08:36:08 AM EDT by Netedit Version 0.32.0
<?xml version="1.0" encoding="UTF-8"?>

<configuration xmlns:xsi="http://www.w3.org/2001/XMLSchema-instance" xsi:noNamespaceSchemaLocation="http://sumo.dlr.de/xsd/netconvertConfiguration.xsd">

    <input>
        <sumo-net-file value="/home/abray/Programming/bigt4/sumo_tools/net_quantico/osm.net.xml"/>
    </input>

    <output>
        <output-file value="/home/abray/Programming/bigt4/sumo_tools/net_quantico/osm.net.xml"/>
        <output.street-names value="true"/>
    </output>

    <processing>
        <no-turnarounds value="true"/>
        <offset.disable-normalization value="true"/>
        <lefthand value="false"/>
        <junctions.corner-detail value="5"/>
        <rectangular-lane-cut value="false"/>
        <walkingareas value="false"/>
    </processing>

</configuration>
-->

<net version="0.27" junctionCornerDetail="5" xmlns:xsi="http://www.w3.org/2001/XMLSchema-instance" xsi:noNamespaceSchemaLocation="http://sumo.dlr.de/xsd/net_file.xsd">

    <location netOffset="-294388.60,-4263799.62" convBoundary="3410.51,643.64,8502.43,7351.78" origBoundary="-77.358568,38.499786,-77.262192,38.566969" projParameter="+proj=utm +zone=18 +ellps=WGS84 +datum=WGS84 +units=m +no_defs"/>

    <type id="highway.bridleway" priority="1" numLanes="1" speed="2.78" allow="pedestrian" oneway="1" width="2.00"/>
    <type id="highway.bus_guideway" priority="1" numLanes="1" speed="27.78" allow="bus" oneway="1"/>
    <type id="highway.cycleway" priority="1" numLanes="1" speed="8.33" allow="bicycle" oneway="0" width="1.00"/>
    <type id="highway.footway" priority="1" numLanes="1" speed="2.78" allow="pedestrian" oneway="1" width="2.00"/>
    <type id="highway.ford" priority="1" numLanes="1" speed="2.78" allow="army" oneway="0"/>
    <type id="highway.living_street" priority="3" numLanes="1" speed="2.78" disallow="tram rail_urban rail rail_electric ship" oneway="0"/>
    <type id="highway.motorway" priority="13" numLanes="2" speed="44.44" allow="private emergency authority army vip passenger hov taxi bus coach delivery truck trailer motorcycle evehicle custom1 custom2" oneway="1"/>
    <type id="highway.motorway_link" priority="12" numLanes="1" speed="22.22" allow="private emergency authority army vip passenger hov taxi bus coach delivery truck trailer motorcycle evehicle custom1 custom2" oneway="1"/>
    <type id="highway.path" priority="1" numLanes="1" speed="2.78" allow="bicycle pedestrian" oneway="1" width="2.00"/>
    <type id="highway.pedestrian" priority="1" numLanes="1" speed="2.78" allow="pedestrian" oneway="1" width="2.00"/>
    <type id="highway.primary" priority="9" numLanes="2" speed="27.78" disallow="tram rail_urban rail rail_electric ship" oneway="0"/>
    <type id="highway.primary_link" priority="8" numLanes="1" speed="22.22" disallow="tram rail_urban rail rail_electric ship" oneway="0"/>
    <type id="highway.raceway" priority="14" numLanes="2" speed="83.33" allow="vip" oneway="0"/>
    <type id="highway.residential" priority="4" numLanes="1" speed="13.89" disallow="tram rail_urban rail rail_electric ship" oneway="0"/>
    <type id="highway.secondary" priority="7" numLanes="2" speed="27.78" disallow="tram rail_urban rail rail_electric ship" oneway="0"/>
    <type id="highway.secondary_link" priority="6" numLanes="1" speed="22.22" disallow="tram rail_urban rail rail_electric ship" oneway="0"/>
    <type id="highway.service" priority="2" numLanes="1" speed="5.56" allow="delivery bicycle pedestrian" oneway="0"/>
    <type id="highway.stairs" priority="1" numLanes="1" speed="1.39" allow="pedestrian" oneway="1" width="2.00"/>
    <type id="highway.step" priority="1" numLanes="1" speed="1.39" allow="pedestrian" oneway="1" width="2.00"/>
    <type id="highway.steps" priority="1" numLanes="1" speed="1.39" allow="pedestrian" oneway="1" width="2.00"/>
    <type id="highway.tertiary" priority="6" numLanes="1" speed="22.22" disallow="tram rail_urban rail rail_electric ship" oneway="0"/>
    <type id="highway.tertiary_link" priority="5" numLanes="1" speed="22.22" disallow="tram rail_urban rail rail_electric ship" oneway="0"/>
    <type id="highway.track" priority="1" numLanes="1" speed="5.56" disallow="tram rail_urban rail rail_electric ship" oneway="0"/>
    <type id="highway.trunk" priority="11" numLanes="2" speed="27.78" disallow="tram rail_urban rail rail_electric bicycle pedestrian ship" oneway="0"/>
    <type id="highway.trunk_link" priority="10" numLanes="1" speed="22.22" disallow="tram rail_urban rail rail_electric bicycle pedestrian ship" oneway="0"/>
    <type id="highway.unclassified" priority="5" numLanes="1" speed="13.89" disallow="tram rail_urban rail rail_electric ship" oneway="0"/>
    <type id="highway.unsurfaced" priority="1" numLanes="1" speed="8.33" disallow="tram rail_urban rail rail_electric ship" oneway="0"/>
    <type id="railway.light_rail" priority="15" numLanes="1" speed="27.78" allow="rail_urban" oneway="1"/>
    <type id="railway.preserved" priority="15" numLanes="1" speed="27.78" allow="rail" oneway="1"/>
    <type id="railway.rail" priority="15" numLanes="1" speed="83.33" allow="rail rail_electric" oneway="1"/>
    <type id="railway.subway" priority="15" numLanes="1" speed="27.78" allow="rail_urban" oneway="1"/>
    <type id="railway.tram" priority="15" numLanes="1" speed="13.89" allow="tram" oneway="1"/>

    <edge id=":1834138962_0" function="internal">
        <lane id=":1834138962_0_0" index="0" disallow="tram rail_urban rail rail_electric ship" speed="13.89" length="9.77" shape="4319.44,728.09 4314.51,719.66"/>
    </edge>
    <edge id=":1834138962_1" function="internal">
        <lane id=":1834138962_1_0" index="0" disallow="tram rail_urban rail rail_electric ship" speed="13.89" length="5.31" shape="4319.44,728.09 4318.35,725.55 4318.36,723.20 4318.45,723.03"/>
    </edge>
    <edge id=":1834138962_2" function="internal">
        <lane id=":1834138962_2_0" index="0" disallow="tram rail_urban rail rail_electric ship" speed="13.89" length="2.51" shape="4319.44,728.09 4319.49,726.61 4319.97,725.82 4320.08,725.81"/>
    </edge>
    <edge id=":1834138962_9" function="internal">
        <lane id=":1834138962_9_0" index="0" speed="13.89" length="5.17" shape="4318.45,723.03 4319.46,721.05 4321.67,719.10"/>
    </edge>
    <edge id=":1834138962_10" function="internal">
        <lane id=":1834138962_10_0" index="0" speed="13.89" length="2.31" shape="4320.08,725.81 4320.89,725.74 4322.25,726.35"/>
    </edge>
    <edge id=":1834138962_3" function="internal">
        <lane id=":1834138962_3_0" index="0" disallow="tram rail_urban rail rail_electric ship" speed="13.89" length="5.30" shape="4323.51,721.83 4322.36,722.84 4321.76,723.93 4321.72,725.10 4322.25,726.35"/>
    </edge>
    <edge id=":1834138962_4" function="internal">
        <lane id=":1834138962_4_0" index="0" disallow="tram rail_urban rail rail_electric ship" speed="13.89" length="10.78" shape="4323.51,721.83 4320.82,723.14 4318.42,723.21 4316.32,722.05 4314.51,719.66"/>
    </edge>
    <edge id=":1834138962_5" function="internal">
        <lane id=":1834138962_5_0" index="0" disallow="tram rail_urban rail rail_electric ship" speed="13.89" length="4.82" shape="4323.51,721.83 4322.02,721.84 4321.22,721.39 4321.10,720.47 4321.67,719.10"/>
    </edge>
    <edge id=":1834138962_6" function="internal">
        <lane id=":1834138962_6_0" index="0" disallow="tram rail_urban rail rail_electric ship" speed="13.89" length="5.11" shape="4317.40,718.07 4318.26,719.20 4319.25,719.75 4320.39,719.71 4321.67,719.10"/>
    </edge>
    <edge id=":1834138962_7" function="internal">
        <lane id=":1834138962_7_0" index="0" disallow="tram rail_urban rail rail_electric ship" speed="13.89" length="9.60" shape="4317.40,718.07 4322.25,726.35"/>
    </edge>
    <edge id=":1834138962_8" function="internal">
        <lane id=":1834138962_8_0" index="0" disallow="tram rail_urban rail rail_electric ship" speed="13.89" length="2.41" shape="4317.40,718.07 4317.28,719.55 4316.76,720.31"/>
    </edge>
    <edge id=":1834138962_11" function="internal">
        <lane id=":1834138962_11_0" index="0" speed="13.89" length="2.41" shape="4316.76,720.31 4315.83,720.35 4314.51,719.66"/>
    </edge>
    <edge id=":1834139012_0" function="internal">
        <lane id=":1834139012_0_0" index="0" disallow="tram rail_urban rail rail_electric ship" speed="13.89" length="4.82" shape="4588.86,1459.37 4587.40,1459.66 4586.52,1459.37 4586.23,1458.49 4586.52,1457.03"/>
    </edge>
    <edge id=":217905210_0" function="internal">
        <lane id=":217905210_0_0" index="0" disallow="tram rail_urban rail rail_electric ship" speed="13.89" length="6.98" shape="5334.34,2365.61 5333.48,2363.43 5332.50,2361.83 5331.42,2360.81 5330.23,2360.37"/>
    </edge>
    <edge id=":217905210_1" function="internal">
        <lane id=":217905210_1_0" index="0" disallow="tram rail_urban rail rail_electric ship" speed="13.89" length="12.44" shape="5334.34,2365.61 5333.70,2362.04 5334.47,2359.56 5336.66,2358.16 5340.27,2357.83"/>
    </edge>
    <edge id=":217905210_2" function="internal">
        <lane id=":217905210_2_0" index="0" disallow="tram rail_urban rail rail_electric ship" speed="13.89" length="4.82" shape="5334.34,2365.61 5334.74,2364.17 5335.39,2363.52 5336.31,2363.66 5337.48,2364.57"/>
    </edge>
    <edge id=":217905210_3" function="internal">
        <lane id=":217905210_3_0" index="0" disallow="tram rail_urban rail rail_electric ship" speed="13.89" length="5.52" shape="5340.11,2361.12 5338.51,2361.27 5337.54,2361.89 5337.19,2362.99 5337.48,2364.57"/>
    </edge>
    <edge id=":217905210_4" function="internal">
        <lane id=":217905210_4_0" index="0" disallow="tram rail_urban rail rail_electric ship" speed="13.89" length="9.91" shape="5340.11,2361.12 5330.23,2360.37"/>
    </edge>
    <edge id=":217905210_5" function="internal">
        <lane id=":217905210_5_0" index="0" disallow="tram rail_urban rail rail_electric ship" speed="13.89" length="2.51" shape="5340.11,2361.12 5338.91,2360.24 5338.54,2359.39 5338.59,2359.30"/>
    </edge>
    <edge id=":217905210_9" function="internal">
        <lane id=":217905210_9_0" index="0" speed="13.89" length="2.31" shape="5338.59,2359.30 5338.99,2358.59 5340.27,2357.83"/>
    </edge>
    <edge id=":217905210_6" function="internal">
        <lane id=":217905210_6_0" index="0" disallow="tram rail_urban rail rail_electric ship" speed="13.89" length="9.66" shape="5330.64,2357.09 5340.27,2357.83"/>
    </edge>
    <edge id=":217905210_7" function="internal">
        <lane id=":217905210_7_0" index="0" disallow="tram rail_urban rail rail_electric ship" speed="13.89" length="4.35" shape="5330.64,2357.09 5332.77,2357.77 5334.42,2359.08"/>
    </edge>
    <edge id=":217905210_8" function="internal">
        <lane id=":217905210_8_0" index="0" disallow="tram rail_urban rail rail_electric ship" speed="13.89" length="2.41" shape="5330.64,2357.09 5331.76,2358.06 5332.07,2358.93"/>
    </edge>
    <edge id=":217905210_10" function="internal">
        <lane id=":217905210_10_0" index="0" speed="13.89" length="6.34" shape="5334.42,2359.08 5334.63,2359.25 5336.20,2361.51 5337.48,2364.57"/>
    </edge>
    <edge id=":217905210_11" function="internal">
        <lane id=":217905210_11_0" index="0" speed="13.89" length="2.41" shape="5332.07,2358.93 5331.56,2359.70 5330.23,2360.37"/>
    </edge>
    <edge id=":217905213_0" function="internal">
        <lane id=":217905213_0_0" index="0" disallow="tram rail_urban rail rail_electric ship" speed="13.89" length="0.54" shape="5350.82,2459.80 5350.78,2459.65 5350.76,2459.54 5350.74,2459.44 5350.72,2459.28"/>
    </edge>
    <edge id=":217905213_1" function="internal">
        <lane id=":217905213_1_0" index="0" disallow="tram rail_urban rail rail_electric ship" speed="13.89" length="2.41" shape="5350.82,2459.80 5351.32,2458.40 5352.02,2457.80"/>
    </edge>
    <edge id=":217905213_4" function="internal">
        <lane id=":217905213_4_0" index="0" speed="13.89" length="2.41" shape="5352.02,2457.80 5352.92,2458.00 5354.02,2459.00"/>
    </edge>
    <edge id=":217905213_2" function="internal">
        <lane id=":217905213_2_0" index="0" disallow="tram rail_urban rail rail_electric ship" speed="13.89" length="0.17" shape="5353.99,2458.83 5354.00,2458.88 5354.00,2458.92 5354.01,2458.95 5354.02,2459.00"/>
    </edge>
    <edge id=":217905213_3" function="internal">
        <lane id=":217905213_3_0" index="0" disallow="tram rail_urban rail rail_electric ship" speed="13.89" length="2.41" shape="5353.99,2458.83 5353.34,2460.17 5352.58,2460.69"/>
    </edge>
    <edge id=":217905213_5" function="internal">
        <lane id=":217905213_5_0" index="0" speed="13.89" length="2.41" shape="5352.58,2460.69 5351.71,2460.39 5350.72,2459.28"/>
    </edge>
    <edge id=":217960257_0" function="internal">
        <lane id=":217960257_0_0" index="0" disallow="tram rail_urban rail rail_electric ship" speed="13.89" length="8.42" shape="5657.88,1865.31 5655.47,1865.96 5653.84,1866.49 5652.27,1867.18 5650.06,1868.33"/>
    </edge>
    <edge id=":217960257_1" function="internal">
        <lane id=":217960257_1_0" index="0" disallow="tram rail_urban rail rail_electric ship" speed="13.89" length="5.04" shape="5657.88,1865.31 5655.15,1865.64 5652.94,1865.03"/>
    </edge>
    <edge id=":217960257_2" function="internal">
        <lane id=":217960257_2_0" index="0" disallow="tram rail_urban rail rail_electric ship" speed="13.89" length="2.41" shape="5657.88,1865.31 5656.47,1864.83 5655.86,1864.14"/>
    </edge>
    <edge id=":217960257_9" function="internal">
        <lane id=":217960257_9_0" index="0" speed="13.89" length="5.04" shape="5652.94,1865.03 5651.24,1863.49 5650.05,1861.01"/>
    </edge>
    <edge id=":217960257_10" function="internal">
        <lane id=":217960257_10_0" index="0" speed="13.89" length="2.41" shape="5655.86,1864.14 5656.05,1863.24 5657.03,1862.12"/>
    </edge>
    <edge id=":217960257_3" function="internal">
        <lane id=":217960257_3_0" index="0" disallow="tram rail_urban rail rail_electric ship" speed="13.89" length="4.94" shape="5653.19,1860.02 5653.78,1861.23 5654.61,1861.99 5655.70,1862.28 5657.03,1862.12"/>
    </edge>
    <edge id=":217960257_4" function="internal">
        <lane id=":217960257_4_0" index="0" disallow="tram rail_urban rail rail_electric ship" speed="13.89" length="9.78" shape="5653.19,1860.02 5653.67,1862.67 5653.31,1864.94 5652.11,1866.83 5650.06,1868.33"/>
    </edge>
    <edge id=":217960257_5" function="internal">
        <lane id=":217960257_5_0" index="0" disallow="tram rail_urban rail rail_electric ship" speed="13.89" length="4.82" shape="5653.19,1860.02 5652.78,1861.45 5652.12,1862.09 5651.21,1861.94 5650.05,1861.01"/>
    </edge>
    <edge id=":217960257_6" function="internal">
        <lane id=":217960257_6_0" index="0" disallow="tram rail_urban rail rail_electric ship" speed="13.89" length="5.12" shape="5648.51,1865.41 5649.55,1864.64 5650.15,1863.65 5650.32,1862.44 5650.05,1861.01"/>
    </edge>
    <edge id=":217960257_7" function="internal">
        <lane id=":217960257_7_0" index="0" disallow="tram rail_urban rail rail_electric ship" speed="13.89" length="9.17" shape="5648.51,1865.41 5650.93,1864.16 5652.63,1863.41 5654.41,1862.83 5657.03,1862.12"/>
    </edge>
    <edge id=":217960257_8" function="internal">
        <lane id=":217960257_8_0" index="0" disallow="tram rail_urban rail rail_electric ship" speed="13.89" length="2.41" shape="5648.51,1865.41 5649.99,1865.56 5650.74,1866.10"/>
    </edge>
    <edge id=":217960257_11" function="internal">
        <lane id=":217960257_11_0" index="0" speed="13.89" length="2.41" shape="5650.74,1866.10 5650.77,1867.02 5650.06,1868.33"/>
    </edge>
    <edge id=":217960260_0" function="internal">
        <lane id=":217960260_0_0" index="0" disallow="tram rail_urban rail rail_electric ship" speed="13.89" length="4.82" shape="5640.90,1832.14 5641.31,1830.71 5641.97,1830.07 5642.88,1830.21 5644.04,1831.14"/>
    </edge>
    <edge id=":218018918_0" function="internal">
        <lane id=":218018918_0_0" index="0" disallow="tram rail_urban rail rail_electric ship" speed="13.89" length="11.28" shape="5076.34,1667.77 5076.55,1670.93 5076.57,1673.41 5076.30,1675.85 5075.62,1678.95"/>
    </edge>
    <edge id=":218018918_1" function="internal">
        <lane id=":218018918_1_0" index="0" disallow="tram rail_urban rail rail_electric ship" speed="13.89" length="5.88" shape="5076.34,1667.77 5076.10,1671.37 5074.92,1673.30"/>
    </edge>
    <edge id=":218018918_2" function="internal">
        <lane id=":218018918_2_0" index="0" disallow="tram rail_urban rail rail_electric ship" speed="13.89" length="2.41" shape="5076.34,1667.77 5075.61,1669.06 5074.82,1669.53"/>
    </edge>
    <edge id=":218018918_9" function="internal">
        <lane id=":218018918_9_0" index="0" speed="13.89" length="6.54" shape="5074.92,1673.30 5074.74,1673.58 5072.28,1674.42 5068.71,1673.87"/>
    </edge>
    <edge id=":218018918_10" function="internal">
        <lane id=":218018918_10_0" index="0" speed="13.89" length="2.41" shape="5074.82,1669.53 5073.96,1669.18 5073.05,1668.00"/>
    </edge>
    <edge id=":218018918_3" function="internal">
        <lane id=":218018918_3_0" index="0" disallow="tram rail_urban rail rail_electric ship" speed="13.89" length="5.51" shape="5069.67,1670.71 5071.25,1670.95 5072.34,1670.58 5072.94,1669.60 5073.05,1668.00"/>
    </edge>
    <edge id=":218018918_4" function="internal">
        <lane id=":218018918_4_0" index="0" disallow="tram rail_urban rail rail_electric ship" speed="13.89" length="11.43" shape="5069.67,1670.71 5072.83,1672.07 5074.88,1673.89 5075.81,1676.18 5075.62,1678.95"/>
    </edge>
    <edge id=":218018918_5" function="internal">
        <lane id=":218018918_5_0" index="0" disallow="tram rail_urban rail rail_electric ship" speed="13.89" length="4.82" shape="5069.67,1670.71 5070.61,1671.86 5070.77,1672.77 5070.14,1673.44 5068.71,1673.87"/>
    </edge>
    <edge id=":218018918_6" function="internal">
        <lane id=":218018918_6_0" index="0" disallow="tram rail_urban rail rail_electric ship" speed="13.89" length="6.31" shape="5072.42,1678.14 5072.46,1676.77 5071.86,1675.61 5070.61,1674.64 5068.71,1673.87"/>
    </edge>
    <edge id=":218018918_7" function="internal">
        <lane id=":218018918_7_0" index="0" disallow="tram rail_urban rail rail_electric ship" speed="13.89" length="10.24" shape="5072.42,1678.14 5073.08,1675.21 5073.33,1673.12 5073.27,1671.01 5073.05,1668.00"/>
    </edge>
    <edge id=":218018918_8" function="internal">
        <lane id=":218018918_8_0" index="0" disallow="tram rail_urban rail rail_electric ship" speed="13.89" length="2.41" shape="5072.42,1678.14 5073.52,1677.14 5074.42,1676.94"/>
    </edge>
    <edge id=":218018918_11" function="internal">
        <lane id=":218018918_11_0" index="0" speed="13.89" length="2.41" shape="5074.42,1676.94 5075.12,1677.54 5075.62,1678.95"/>
    </edge>
    <edge id=":218020419_0" function="internal">
        <lane id=":218020419_0_0" index="0" disallow="tram rail_urban rail rail_electric ship" speed="13.89" length="9.55" shape="4553.99,1132.25 4549.04,1124.08"/>
    </edge>
    <edge id=":218020419_1" function="internal">
        <lane id=":218020419_1_0" index="0" disallow="tram rail_urban rail rail_electric ship" speed="13.89" length="5.25" shape="4553.99,1132.25 4552.89,1129.68 4552.88,1127.35 4552.94,1127.24"/>
    </edge>
    <edge id=":218020419_2" function="internal">
        <lane id=":218020419_2_0" index="0" disallow="tram rail_urban rail rail_electric ship" speed="13.89" length="2.41" shape="4553.99,1132.25 4554.04,1130.76 4554.53,1129.98"/>
    </edge>
    <edge id=":218020419_9" function="internal">
        <lane id=":218020419_9_0" index="0" speed="13.89" length="5.11" shape="4552.94,1127.24 4553.97,1125.25 4556.14,1123.38"/>
    </edge>
    <edge id=":218020419_10" function="internal">
        <lane id=":218020419_10_0" index="0" speed="13.89" length="2.41" shape="4554.53,1129.98 4555.45,1129.90 4556.80,1130.52"/>
    </edge>
    <edge id=":218020419_3" function="internal">
        <lane id=":218020419_3_0" index="0" disallow="tram rail_urban rail rail_electric ship" speed="13.89" length="5.12" shape="4557.93,1126.15 4556.83,1127.09 4556.28,1128.13 4556.27,1129.27 4556.80,1130.52"/>
    </edge>
    <edge id=":218020419_4" function="internal">
        <lane id=":218020419_4_0" index="0" disallow="tram rail_urban rail rail_electric ship" speed="13.89" length="10.49" shape="4557.93,1126.15 4555.30,1127.36 4552.95,1127.41 4550.86,1126.32 4549.04,1124.08"/>
    </edge>
    <edge id=":218020419_5" function="internal">
        <lane id=":218020419_5_0" index="0" disallow="tram rail_urban rail rail_electric ship" speed="13.89" length="4.82" shape="4557.93,1126.15 4556.44,1126.13 4555.65,1125.66 4555.55,1124.74 4556.14,1123.38"/>
    </edge>
    <edge id=":218020419_6" function="internal">
        <lane id=":218020419_6_0" index="0" disallow="tram rail_urban rail rail_electric ship" speed="13.89" length="5.04" shape="4551.87,1122.38 4552.74,1123.46 4553.75,1123.99 4554.88,1123.96 4556.14,1123.38"/>
    </edge>
    <edge id=":218020419_7" function="internal">
        <lane id=":218020419_7_0" index="0" disallow="tram rail_urban rail rail_electric ship" speed="13.89" length="9.52" shape="4551.87,1122.38 4556.80,1130.52"/>
    </edge>
    <edge id=":218020419_8" function="internal">
        <lane id=":218020419_8_0" index="0" disallow="tram rail_urban rail rail_electric ship" speed="13.89" length="2.41" shape="4551.87,1122.38 4551.80,1123.87 4551.30,1124.65"/>
    </edge>
    <edge id=":218020419_11" function="internal">
        <lane id=":218020419_11_0" index="0" speed="13.89" length="2.41" shape="4551.30,1124.65 4550.38,1124.72 4549.04,1124.08"/>
    </edge>
    <edge id=":218144559_0" function="internal">
        <lane id=":218144559_0_0" index="0" disallow="tram rail_urban rail rail_electric ship" speed="13.89" length="9.42" shape="4832.79,1612.00 4825.95,1605.53"/>
    </edge>
    <edge id=":218144559_1" function="internal">
        <lane id=":218144559_1_0" index="0" disallow="tram rail_urban rail rail_electric ship" speed="13.89" length="5.12" shape="4832.79,1612.00 4831.07,1609.80 4830.47,1607.56"/>
    </edge>
    <edge id=":218144559_2" function="internal">
        <lane id=":218144559_2_0" index="0" disallow="tram rail_urban rail rail_electric ship" speed="13.89" length="2.41" shape="4832.79,1612.00 4832.47,1610.55 4832.74,1609.67"/>
    </edge>
    <edge id=":218144559_9" function="internal">
        <lane id=":218144559_9_0" index="0" speed="13.89" length="5.17" shape="4830.47,1607.56 4830.97,1605.27 4832.58,1602.95"/>
    </edge>
    <edge id=":218144559_10" function="internal">
        <lane id=":218144559_10_0" index="0" speed="13.89" length="2.41" shape="4832.74,1609.67 4833.61,1609.36 4835.08,1609.63"/>
    </edge>
    <edge id=":218144559_3" function="internal">
        <lane id=":218144559_3_0" index="0" disallow="tram rail_urban rail rail_electric ship" speed="13.89" length="5.04" shape="4835.00,1605.19 4834.21,1606.33 4833.95,1607.45 4834.24,1608.55 4835.08,1609.63"/>
    </edge>
    <edge id=":218144559_4" function="internal">
        <lane id=":218144559_4_0" index="0" disallow="tram rail_urban rail rail_electric ship" speed="13.89" length="10.34" shape="4835.00,1605.19 4832.80,1606.98 4830.56,1607.63 4828.28,1607.15 4825.95,1605.53"/>
    </edge>
    <edge id=":218144559_5" function="internal">
        <lane id=":218144559_5_0" index="0" disallow="tram rail_urban rail rail_electric ship" speed="13.89" length="4.82" shape="4835.00,1605.19 4833.56,1605.54 4832.67,1605.28 4832.34,1604.42 4832.58,1602.95"/>
    </edge>
    <edge id=":218144559_6" function="internal">
        <lane id=":218144559_6_0" index="0" disallow="tram rail_urban rail rail_electric ship" speed="13.89" length="5.00" shape="4828.19,1603.12 4829.32,1603.90 4830.43,1604.13 4831.51,1603.82 4832.58,1602.95"/>
    </edge>
    <edge id=":218144559_7" function="internal">
        <lane id=":218144559_7_0" index="0" disallow="tram rail_urban rail rail_electric ship" speed="13.89" length="9.47" shape="4828.19,1603.12 4835.08,1609.63"/>
    </edge>
    <edge id=":218144559_8" function="internal">
        <lane id=":218144559_8_0" index="0" disallow="tram rail_urban rail rail_electric ship" speed="13.89" length="2.41" shape="4828.19,1603.12 4828.54,1604.56 4828.28,1605.45"/>
    </edge>
    <edge id=":218144559_11" function="internal">
        <lane id=":218144559_11_0" index="0" speed="13.89" length="2.41" shape="4828.28,1605.45 4827.42,1605.77 4825.95,1605.53"/>
    </edge>
    <edge id=":218144568_0" function="internal">
        <lane id=":218144568_0_0" index="0" disallow="tram rail_urban rail rail_electric ship" speed="13.89" length="4.82" shape="4862.12,1570.90 4863.56,1570.55 4864.45,1570.81 4864.78,1571.67 4864.54,1573.14"/>
    </edge>
    <edge id=":218144574_0" function="internal">
        <lane id=":218144574_0_0" index="0" disallow="tram rail_urban rail rail_electric ship" speed="13.89" length="7.31" shape="5295.01,2358.89 5292.97,2359.19 5291.71,2359.94 5290.65,2361.13 5289.22,2362.78"/>
    </edge>
    <edge id=":218144574_1" function="internal">
        <lane id=":218144574_1_0" index="0" disallow="tram rail_urban rail rail_electric ship" speed="13.89" length="9.52" shape="5295.01,2358.89 5292.23,2358.83 5290.36,2358.38 5288.57,2357.52 5286.06,2356.22"/>
    </edge>
    <edge id=":218144574_2" function="internal">
        <lane id=":218144574_2_0" index="0" disallow="tram rail_urban rail rail_electric ship" speed="13.89" length="2.58" shape="5295.01,2358.89 5293.74,2358.11 5293.30,2357.30 5293.37,2357.15"/>
    </edge>
    <edge id=":218144574_9" function="internal">
        <lane id=":218144574_9_0" index="0" speed="13.89" length="2.24" shape="5293.37,2357.15 5293.68,2356.46 5294.89,2355.59"/>
    </edge>
    <edge id=":218144574_3" function="internal">
        <lane id=":218144574_3_0" index="0" disallow="tram rail_urban rail rail_electric ship" speed="13.89" length="7.90" shape="5287.50,2353.25 5289.58,2354.35 5291.05,2355.11 5292.59,2355.52 5294.89,2355.59"/>
    </edge>
    <edge id=":218144574_4" function="internal">
        <lane id=":218144574_4_0" index="0" disallow="tram rail_urban rail rail_electric ship" speed="13.89" length="5.51" shape="5287.50,2353.25 5290.38,2355.20 5291.37,2356.98"/>
    </edge>
    <edge id=":218144574_5" function="internal">
        <lane id=":218144574_5_0" index="0" disallow="tram rail_urban rail rail_electric ship" speed="13.89" length="2.51" shape="5287.50,2353.25 5288.25,2354.54 5288.26,2355.46 5288.18,2355.52"/>
    </edge>
    <edge id=":218144574_10" function="internal">
        <lane id=":218144574_10_0" index="0" speed="13.89" length="6.55" shape="5291.37,2356.98 5291.62,2357.43 5291.24,2359.96 5289.22,2362.78"/>
    </edge>
    <edge id=":218144574_11" function="internal">
        <lane id=":218144574_11_0" index="0" speed="13.89" length="2.31" shape="5288.18,2355.52 5287.53,2356.02 5286.06,2356.22"/>
    </edge>
    <edge id=":218144574_6" function="internal">
        <lane id=":218144574_6_0" index="0" disallow="tram rail_urban rail rail_electric ship" speed="13.89" length="5.42" shape="5286.83,2360.51 5287.74,2359.24 5287.91,2358.10 5287.35,2357.10 5286.06,2356.22"/>
    </edge>
    <edge id=":218144574_7" function="internal">
        <lane id=":218144574_7_0" index="0" disallow="tram rail_urban rail rail_electric ship" speed="13.89" length="9.87" shape="5286.83,2360.51 5288.80,2358.32 5290.31,2356.83 5292.10,2355.95 5294.89,2355.59"/>
    </edge>
    <edge id=":218144574_8" function="internal">
        <lane id=":218144574_8_0" index="0" disallow="tram rail_urban rail rail_electric ship" speed="13.89" length="4.82" shape="5286.83,2360.51 5288.28,2360.18 5289.16,2360.45 5289.48,2361.32 5289.22,2362.78"/>
    </edge>
    <edge id=":218202437_0" function="internal">
        <lane id=":218202437_0_0" index="0" disallow="tram rail_urban rail rail_electric ship" speed="13.89" length="6.89" shape="5281.06,2012.86 5279.22,2011.44 5277.59,2010.70 5276.18,2010.65 5274.98,2011.29"/>
    </edge>
    <edge id=":218202437_1" function="internal">
        <lane id=":218202437_1_0" index="0" disallow="tram rail_urban rail rail_electric ship" speed="13.89" length="13.12" shape="5281.06,2012.86 5278.56,2009.88 5278.03,2007.27 5279.46,2005.01 5282.86,2003.12"/>
    </edge>
    <edge id=":218202437_2" function="internal">
        <lane id=":218202437_2_0" index="0" disallow="tram rail_urban rail rail_electric ship" speed="13.89" length="4.82" shape="5281.06,2012.86 5280.70,2011.42 5280.95,2010.53 5281.81,2010.20 5283.28,2010.42"/>
    </edge>
    <edge id=":218202437_3" function="internal">
        <lane id=":218202437_3_0" index="0" disallow="tram rail_urban rail rail_electric ship" speed="13.89" length="5.69" shape="5284.06,2006.19 5282.59,2007.01 5281.96,2007.99 5282.20,2009.13 5283.28,2010.42"/>
    </edge>
    <edge id=":218202437_4" function="internal">
        <lane id=":218202437_4_0" index="0" disallow="tram rail_urban rail rail_electric ship" speed="13.89" length="10.51" shape="5284.06,2006.19 5281.20,2007.29 5279.17,2008.17 5277.31,2009.34 5274.98,2011.29"/>
    </edge>
    <edge id=":218202437_5" function="internal">
        <lane id=":218202437_5_0" index="0" disallow="tram rail_urban rail rail_electric ship" speed="13.89" length="2.41" shape="5284.06,2006.19 5282.61,2005.87 5281.92,2005.26"/>
    </edge>
    <edge id=":218202437_9" function="internal">
        <lane id=":218202437_9_0" index="0" speed="13.89" length="2.41" shape="5281.92,2005.26 5282.00,2004.34 5282.86,2003.12"/>
    </edge>
    <edge id=":218202437_6" function="internal">